Circuit: * C:\Users\elima\.julia\dev\jlSPICE\src\TestCirc1_2Src.asc


Date: Mon Sep 06 20:40:21 2021
Total elapsed time: 0.131 seconds.

tnom = 27
temp = 27
method = trap
totiter = 0
traniter = 0
tranpoints = 0
accept = 0
rejected = 0
matrix size = 5
fillins = 1
solver = Normal

